/*--------------------------------*- C++ -*----------------------------------*\
| =========                 |                                                 |
| \\      /  F ield         | OpenFOAM: The Open Source CFD Toolbox           |
|  \\    /   O peration     | Version:  v2312                                 |
|   \\  /    A nd           | Website:  www.openfoam.com                      |
|    \\/     M anipulation  |                                                 |
\*---------------------------------------------------------------------------*/
FoamFile
{
    version     2.0;
    format      ascii;
    class       dictionary;
    object      blockMeshDict;
}
// * * * * * * * * * * * * * * * * * * * * * * * * * * * * * * * * * * * * * //

scale   1;

vertices
(
    (-282 -206 -173)
    (173 -206 -173)
    (173 0 -173)
    (-282 0 -173)

    (-282 -206 -10.3)
    (173 -206 -10.3)
    (173 0 -10.3)
    (-282 0 -10.3)

    (-282 -206 2.52)
    (173 -206 2.52)
    (173 0 2.52)
    (-282 0 2.52)

    (-282 -206 3.160)
    (173 -206 3.160)
    (173 0 3.160)
    (-282 0 3.160)

    (-282 -206 4.6)
    (173 -206 4.6)
    (173 0 4.6)
    (-282 0 4.6)

    (-282 -206 17.9)
    (173 -206 17.9)
    (173 0 17.9)
    (-282 0 17.9)

    (-282 -206 43.9)
    (173 -206 43.9)
    (173 0 43.9)
    (-282 0 43.9)
);

blocks
(
    hex (0 1 2 3 4 5 6 7) (42 19 50) simpleGrading (1 1 0.05)
    hex (4 5 6 7 8 9 10 11) (42 19 50) simpleGrading (1 1 1)
    hex (8 9 10 11 12 13 14 15) (42 19 4) simpleGrading (1 1 1)
    hex (12 13 14 15 16 17 18 19) (42 19 9) simpleGrading (1 1 1)
    hex (16 17 18 19 20 21 22 23) (42 19 40) simpleGrading (1 1 1)
    hex (20 21 22 23 24 25 26 27) (42 19 20) simpleGrading (1 1 5)
);

edges
(
);

boundary
(
    atmosphere
    {
        type patch;
        faces
        (
            (24 25 26 27)
        );
    }
    inlet
    {
        type patch;
        faces
        (
            (1 2 6 5)
            (5 6 10 9)
            (9 10 14 13)
            (13 14 18 17)
            (17 18 22 21)
            (21 22 26 25)
        );
    }
    outlet
    {
        type patch;
        faces
        (
            (0 4 7 3)
            (4 8 11 7)
            (8 12 15 11)
            (12 16 19 15)
            (16 20 23 19)
            (20 24 27 23)
        );
    }
    bottom
    {
        type symmetryPlane;
        faces
        (
            (0 3 2 1)
        );
    }
    side
    {
        type symmetryPlane;
        faces
        (
            (0 1 5 4)
            (4 5 9 8)
            (8 9 13 12)
            (12 13 17 16)
            (16 17 21 20)
            (20 21 25 24)
        );
    }
    midPlane
    {
        type symmetryPlane;
        faces
        (
            (3 7 6 2)
            (7 11 10 6)
            (11 15 14 10)
            (15 19 18 14)
            (19 23 22 18)
            (23 27 26 22)
        );
    }
);

mergePatchPairs
(
);


// ************************************************************************* //
